/*--------------------------------*- C++ -*----------------------------------*\
| =========                 |                                                 |
| \\      /  F ield         | OpenFOAM: The Open Source CFD Toolbox           |
|  \\    /   O peration     | Version:  4.0                                   |
|   \\  /    A nd           | Web:      www.OpenFOAM.org                      |
|    \\/     M anipulation  |                                                 |
\*---------------------------------------------------------------------------*/
FoamFile
{
    version     2.0;
    format      ascii;
    class       volScalarField;
    location    "0";
    object      k;
}
// * * * * * * * * * * * * * * * * * * * * * * * * * * * * * * * * * * * * * //

dimensions      [0 2 -2 0 0 0 0];

internalField   uniform 1e-4;

boundaryField
{
    Jet
    {
        type            fixedValue;
        value           $internalField;
    }
    Pilot
    {
        type            fixedValue;
        value           $internalField;
    }
    Coflow
    {
        type            fixedValue;
        value           $internalField;
    }
    Outlet
    {
        type            inletOutlet;
        inletValue      $internalField;
        value           $internalField;
    }
    FarField
    {
        type            zeroGradient;        
    }
}


// ************************************************************************* //
