/*--------------------------------*- C++ -*----------------------------------*\
| =========                 |                                                 |
| \\      /  F ield         | OpenFOAM: The Open Source CFD Toolbox           |
|  \\    /   O peration     | Version:  2.3.1                                 |
|   \\  /    A nd           | Web:      www.OpenFOAM.org                      |
|    \\/     M anipulation  |                                                 |
\*---------------------------------------------------------------------------*/
FoamFile
{
    version     2.0;
    format      ascii;
    class       volScalarField;
    location    "0";
    object      p_rgh;
}
// * * * * * * * * * * * * * * * * * * * * * * * * * * * * * * * * * * * * * //

dimensions      [1 -1 -2 0 0 0 0];

internalField   uniform 0;

boundaryField
{
    Jet
    {
	type            calculated;
        value           $internalField;
    }
    Pilot
    {
	type            calculated;
        value           $internalField;
    }
    Coflow
    {
	type            calculated;
        value           $internalField;
    }
    Outlet
    {
        type            calculated;
        value           $internalField;
    }
    FarField
    {
        type            calculated;
        value           $internalField;
    }
}


// ************************************************************************* //
