/*--------------------------------*- C++ -*----------------------------------*\
| =========                 |                                                 |
| \\      /  F ield         | OpenFOAM: The Open Source CFD Toolbox           |
|  \\    /   O peration     | Version:  4.0                                   |
|   \\  /    A nd           | Web:      www.OpenFOAM.org                      |
|    \\/     M anipulation  |                                                 |
\*---------------------------------------------------------------------------*/
FoamFile
{
    version     2.0;
    format      ascii;
    class       volScalarField;
    location    "0";
    object      T;
}
// * * * * * * * * * * * * * * * * * * * * * * * * * * * * * * * * * * * * * //

dimensions      [0 0 0 1 0 0 0];

internalField   uniform 291;

boundaryField
{
    Jet
    {
        type            fixedValue;
        value           uniform 294;
    }
    Pilot
    {
        type            fixedValue;
        value           uniform 1880;
    }
    Coflow
    {
        type            fixedValue;
        value           uniform 291;
    }
    
    Outlet
    {
	type		inletOutlet;
	inletValue	$internalField;
	value		$internalField;    
    }
    FarField
    {
        type		inletOutlet;
	inletValue	$internalField;
	value		$internalField;          
    }
}


// ************************************************************************* //
