/*--------------------------------*- C++ -*----------------------------------*\
| =========                 |                                                 |
| \\      /  F ield         | OpenFOAM: The Open Source CFD Toolbox           |
|  \\    /   O peration     | Version:  4.0                                   |
|   \\  /    A nd           | Web:      www.OpenFOAM.org                      |
|    \\/     M anipulation  |                                                 |
\*---------------------------------------------------------------------------*/
FoamFile
{
    version     2.0;
    format      ascii;
    class       dictionary;
    location    "constant";
    object      combustionProperties;
}
// * * * * * * * * * * * * * * * * * * * * * * * * * * * * * * * * * * * * * //

// combustionModel  noCombustion<psiThermoCombustion>;
// active  false;
combustionModel  PaSR<rhoChemistryCombustion>;
active  true;

laminarCoeffs
{
}

noCombustionCoeffs
{
}

PaSRCoeffs
{
    Cmix                0.147;
//     Cmix                0.5;
    turbulentReaction   on;
    useReactionRate     yes;
}

/*
Valid  combustionModels for rhoReactingFOAM are : 
	diffusion<rhoThermoCombustion,gasHThermoPhysics>
	PaSR<rhoChemistryCombustion>
	diffusion<rhoThermoCombustion,gasEThermoPhysics>
	infinitelyFastChemistry<rhoThermoCombustion,constGasEThermoPhysics>
	FSD<rhoThermoCombustion,constGasHThermoPhysics>
	diffusion<rhoThermoCombustion,constGasHThermoPhysics>
	infinitelyFastChemistry<rhoThermoCombustion,gasEThermoPhysics>
	diffusion<rhoThermoCombustion,constGasEThermoPhysics>
	noCombustion<rhoThermoCombustion>
	FSD<rhoThermoCombustion,constGasEThermoPhysics>
	infinitelyFastChemistry<rhoThermoCombustion,constGasHThermoPhysics>
	laminar<rhoChemistryCombustion>
	FSD<rhoThermoCombustion,gasEThermoPhysics>
	infinitelyFastChemistry<rhoThermoCombustion,gasHThermoPhysics>
	FSD<rhoThermoCombustion,gasHThermoPhysics>
*/


// ************************************************************************* //
