/*---------------------------------------------------------------------------*\
| =========                 |                                                 |
| \\      /  F ield         | OpenFOAM: The Open Source CFD Toolbox           |
|  \\    /   O peration     | Version:  2.3.1                                 |
|   \\  /    A nd           | Web:      www.OpenFOAM.org                      |
|    \\/     M anipulation  |                                                 |
\*---------------------------------------------------------------------------*/
FoamFile
{
    version     2.0;
    format      ascii;  
    class       dictionary;
    object      blockMeshDict;
}
// * * * * * * * * * * * * * * * * * * * * * * * * * * * * * * * * * * * * * //
convertToMeters 0.001;

Z0	 0.0;
ZT	 600;
P0	 1.060660172;
N0	-1.060660172;
P1	 2.545584412;
N1	-2.545584412;
P2 	 6.434671709;
N2	-6.434671709;
P3	 53.03300859;
N3	-53.03300859;

r0p	 1.5;	
r0n	-1.5;
rJp	 3.6;
rJn	-3.6;
rPp	 9.1;
rPn	-9.1;
rCp	 75.0;
rCn	-75.0;

vertices
(
	($N0 $P0 $Z0)//V0
	($N0 $N0 $Z0)//V1
	($P0 $N0 $Z0)//V2
	($P0 $P0 $Z0)//V3
	($N1 $P1 $Z0)//V4
	($N1 $N1 $Z0)//V5
	($P1 $N1 $Z0)//V6
	($P1 $P1 $Z0)//V7
	
	($N0 $P0 $ZT)//V8
	($N0 $N0 $ZT)//V9
	($P0 $N0 $ZT)//V10
	($P0 $P0 $ZT)//V11
	($N1 $P1 $ZT)//V12
	($N1 $N1 $ZT)//V13
	($P1 $N1 $ZT)//V14
	($P1 $P1 $ZT)//V15
//Pilot Vertex's	
	($N2 $P2 $Z0)//V16
	($N2 $N2 $Z0)//V17
	($P2 $N2 $Z0)//V18
	($P2 $P2 $Z0)//V19
	($N2 $P2 $ZT)//V20
	($N2 $N2 $ZT)//V21
	($P2 $N2 $ZT)//V22
	($P2 $P2 $ZT)//V23
//CoFlow Vertex's	
	($N3 $P3 $Z0)//V24
	($N3 $N3 $Z0)//V25
	($P3 $N3 $Z0)//V26
	($P3 $P3 $Z0)//V27
	($N3 $P3 $ZT)//V28
	($N3 $N3 $ZT)//V29
	($P3 $N3 $ZT)//V30
	($P3 $P3 $ZT)//V31		
);
XYdiv	20;
Zdiv	100;

GZ	50;
GP	8;
GC	20;
blocks 
(
    hex (0 1 2 3 8 9 10 11) ($XYdiv $XYdiv $Zdiv) simpleGrading (1 1 $GZ)//Jet
    hex (0 4 5 1 8 12 13 9) ($XYdiv $XYdiv $Zdiv) simpleGrading (1 1 $GZ)
    hex (1 5 6 2 9 13 14 10) ($XYdiv $XYdiv $Zdiv) simpleGrading (1 1 $GZ)  
    hex (2 6 7 3 10 14 15 11) ($XYdiv $XYdiv $Zdiv) simpleGrading (1 1 $GZ) 
    hex (3 7 4 0 11 15 12 8) ($XYdiv $XYdiv $Zdiv) simpleGrading (1 1 $GZ) 
    
    hex (4 16 17 5 12 20 21 13) ($XYdiv $XYdiv $Zdiv) simpleGrading ($GP 1 $GZ)//Pilot
    hex (5 17 18 6 13 21 22 14) ($XYdiv $XYdiv $Zdiv) simpleGrading ($GP 1 $GZ)
    hex (6 18 19 7 14 22 23 15) ($XYdiv $XYdiv $Zdiv) simpleGrading ($GP 1 $GZ)
    hex (7 19 16 4 15 23 20 12) ($XYdiv $XYdiv $Zdiv) simpleGrading ($GP 1 $GZ)
    
    hex (16 24 25 17 20 28 29 21) ($XYdiv $XYdiv $Zdiv) simpleGrading ($GC 1 $GZ)//Coflow
    hex (17 25 26 18 21 29 30 22) ($XYdiv $XYdiv $Zdiv) simpleGrading ($GC 1 $GZ)
    hex (18 26 27 19 22 30 31 23) ($XYdiv $XYdiv $Zdiv) simpleGrading ($GC 1 $GZ)
    hex (19 27 24 16 23 31 28 20) ($XYdiv $XYdiv $Zdiv) simpleGrading ($GC 1 $GZ)
); 
edges 
(
//Jet
// 	arc 0 1 ($r0n $Z0 $Z0) 
// 	arc 1 2 ($Z0 $r0n $Z0)
// 	arc 2 3 ($r0p $Z0 $Z0) 
// 	arc 3 0 ($Z0 $r0p $Z0)
	
// 	arc 8 9 ($r0n $Z0 $ZT) 
// 	arc 9 10 ($Z0 $r0n $ZT)
// 	arc 10 11 ($r0p $Z0 $ZT) 
// 	arc 11 8 ($Z0 $r0p $ZT)
	
	arc 4 5 ($rJn $Z0 $Z0) 
	arc 5 6 ($Z0 $rJn $Z0)
	arc 6 7 ($rJp $Z0 $Z0) 
	arc 7 4 ($Z0 $rJp $Z0)
		
	arc 12 13 ($rJn $Z0 $ZT) 
	arc 13 14 ($Z0 $rJn $ZT)
	arc 14 15 ($rJp $Z0 $ZT) 
	arc 15 12 ($Z0 $rJp $ZT)
//Pilot
	arc 16 17 ($rPn $Z0 $Z0) 
	arc 17 18 ($Z0 $rPn $Z0)
	arc 18 19 ($rPp $Z0 $Z0) 
	arc 19 16 ($Z0 $rPp $Z0)
		
	arc 20 21 ($rPn $Z0 $ZT) 
	arc 21 22 ($Z0 $rPn $ZT)
	arc 22 23 ($rPp $Z0 $ZT) 
	arc 23 20 ($Z0 $rPp $ZT)
//Coflow
	arc 24 25 ($rCn $Z0 $Z0) 
	arc 25 26 ($Z0 $rCn $Z0)
	arc 26 27 ($rCp $Z0 $Z0) 
	arc 27 24 ($Z0 $rCp $Z0)
		
	arc 28 29 ($rCn $Z0 $ZT) 
	arc 29 30 ($Z0 $rCn $ZT)
	arc 30 31 ($rCp $Z0 $ZT) 
	arc 31 28 ($Z0 $rCp $ZT)  	  
); 
boundary
(
    Jet
    {
        type patch;
        faces
        (
            (0 3 2 1)
	    (0 1 5 4)
	    (1 2 6 5)
	    (2 3 7 6)
	    (3 0 4 7)
        );
    }
    Pilot
    {
        type patch;
        faces
        (
            (4 5 17 16)
	    (5 6 18 17)
	    (6 7 19 18)
	    (7 4 16 19)
        );
    }
    Coflow
    {
        type patch;
        faces
        (
            (16 17 25 24)
	    (17 18 26 25)
	    (18 19 27 26)
	    (19 16 24 27)
        );
    }
    Outlet
    {
        type patch;
        faces
        (
            (8 9 10 11)
	    (8 12 13 9)
	    (9 13 14 10)
	    (10 14 15 11)
	    (11 15 12 8)
	    
	    (12 20 21 13)
	    (13 21 22 14)
	    (14 22 23 15)
	    (15 23 20 12)
	    
	    (20 28 29 21)
	    (21 29 30 22)
	    (22 30 31 23)
	    (23 31 28 20)
        );
    }
    FarField
    {
        type patch;
        faces
        (
	    (25 29 28 24)
	    (26 30 29 25)
	    (27 31 30 26)
	    (24 28 31 27)
        );
    }
); 
mergePatchPairs 
( 
);

// ************************************************************************* //
