/*--------------------------------*- C++ -*----------------------------------*\
| =========                 |                                                 |
| \\      /  F ield         | OpenFOAM: The Open Source CFD Toolbox           |
|  \\    /   O peration     | Version:  4.0                                   |
|   \\  /    A nd           | Web:      www.OpenFOAM.org                      |
|    \\/     M anipulation  |                                                 |
\*---------------------------------------------------------------------------*/
FoamFile
{
    version     2.0;
    format      ascii;
    class       volScalarField;
    location    "0";
    object      omega;
}
// * * * * * * * * * * * * * * * * * * * * * * * * * * * * * * * * * * * * * //

dimensions      [0 0 -1 0 0 0 0];

internalField   uniform 77200;

boundaryField
{
    Jet
    {
        type            turbulentMixingLengthFrequencyInlet;
        mixingLength    0.0005;
        k               k;
        value           uniform 77200;
    }
    Pilot
    {
        type            turbulentMixingLengthFrequencyInlet;
        mixingLength    0.0005;
        k               k;
        value           uniform 77200;
    }
    Coflow
    {
        type            turbulentMixingLengthFrequencyInlet;
        mixingLength    0.0005;
        k               k;
        value           uniform 77200;
    }
    Outlet
    {
        type            zeroGradient;
    }
    FarField
    {
        type            zeroGradient;
// 	type            omegaWallFunction;
//         value           uniform 77200;        
    }
}


// ************************************************************************* //
